Circuit: * C:\Users\rochi\Google Drive\Materias\Laboratorio de electrónica\TPs\Labo-de-Electro-tp1\Spice\labo_tp1_ej1.asc


Date: Sat Aug 25 19:05:00 2018
Total elapsed time: 0.060 seconds.

tnom = 27
temp = 27
method = trap
totiter = 0
traniter = 0
tranpoints = 0
accept = 0
rejected = 0
matrix size = 2
fillins = 0
solver = Normal

